project/tests/fixtures/controls/legacy_regression/psse_validation_cases_genq/psse_genq_3bus_qmin.raw
@!IC, SBASE,REV,XFRRAT,NXFRAT,BASFRQ
0, 100.00, 34, 0, 1, 50.00 / PSS(R)E-34.9
GENQ 3 bus QMIN validation
PV generator absorbs vars from a capacitive shunt and reaches lower reactive limit
GENERAL, THRSHZ=0.0001
SOLVER, FNSL, ACTAPS=0, AREAIN=0, PHSHFT=0, DCTAPS=0, SWSHNT=0, FLATST=0, VARLIM=1, NONDIV=0
NEWTON, VCTOLV=0.00001
ADJUST, MXTPSS=20
0 / END OF SYSTEM-WIDE DATA, BEGIN BUS DATA
@!   I,'NAME        ', BASKV, IDE,AREA,ZONE,OWNER, VM,        VA,    NVHI,   NVLO,   EVHI,   EVLO
1,'SLACK       ', 230.0000,3,   1,   1,   1,1.00000,   0.0000,1.10000,0.90000,1.10000,0.90000
2,'GEN_QMIN    ', 230.0000,2,   1,   1,   1,1.00000,   0.0000,1.10000,0.90000,1.10000,0.90000
3,'CAP_LOAD    ', 230.0000,1,   1,   1,   1,1.00000,   0.0000,1.10000,0.90000,1.10000,0.90000
0 / END OF BUS DATA, BEGIN LOAD DATA
@!   I,'ID',STAT,AREA,ZONE,      PL,        QL,        IP,        IQ,        YP,        YQ, OWNER,SCALE,INTRPT,  DGENP,     DGENQ, DGENF
3,'1 ',   1,   1,   1,    80.000,     0.000,     0.000,     0.000,     0.000,     0.000,   1,1,0,     0.000,     0.000, 0
0 / END OF LOAD DATA, BEGIN FIXED SHUNT DATA
@!   I,'ID',STATUS,  GL,        BL
3,'C1',   1,     0.000,    80.000
0 / END OF FIXED SHUNT DATA, BEGIN GENERATOR DATA
@!   I,'ID',      PG,        QG,        QT,        QB,     VS,    IREG,     MBASE,     ZR,         ZX,         RT,         XT,     GTAP,STAT, RMPCT,      PT,        PB,    O1,    F1
1,'1 ',     0.000,     0.000,   300.000,  -300.000,1.00000,     1,   100.000, 0.00000E+0, 1.00000E+0, 0.00000E+0, 0.00000E+0,1.00000,1,  100.0,   300.000,  -100.000,   1,1.0000
2,'1 ',    80.000,     0.000,   100.000,   -10.000,1.00000,     2,   100.000, 0.00000E+0, 1.00000E+0, 0.00000E+0, 0.00000E+0,1.00000,1,  100.0,   150.000,     0.000,   1,1.0000
0 / END OF GENERATOR DATA, BEGIN BRANCH DATA
@!   I,     J,'CKT',     R,          X,         B,                    'N A M E'                 ,   RATE1,   RATE2,   RATE3,   RATE4,   RATE5,   RATE6,   RATE7,   RATE8,   RATE9,  RATE10,  RATE11,  RATE12,    GI,       BI,       GJ,       BJ,STAT,MET,  LEN,  O1,  F1
1,2,'1 ', 1.00000E-02, 1.00000E-01,   0.00000,'LINE12                                  ',  200.00,  200.00,  200.00,    0.00,    0.00,    0.00,    0.00,    0.00,    0.00,    0.00,    0.00,    0.00,  0.00000,  0.00000,  0.00000,  0.00000,1,1,  10.00,   1,1.0000
2,3,'1 ', 2.00000E-02, 1.20000E-01,   0.00000,'LINE23                                  ',  200.00,  200.00,  200.00,    0.00,    0.00,    0.00,    0.00,    0.00,    0.00,    0.00,    0.00,    0.00,  0.00000,  0.00000,  0.00000,  0.00000,1,1,  10.00,   1,1.0000
0 / END OF BRANCH DATA, BEGIN SYSTEM SWITCHING DEVICE DATA
0 / END OF SYSTEM SWITCHING DEVICE DATA, BEGIN TRANSFORMER DATA
0 / END OF TRANSFORMER DATA, BEGIN AREA DATA
1,     1,      0.000,     10.000, 'AREA1'
0 / END OF AREA DATA, BEGIN TWO-TERMINAL DC DATA
0 / END OF TWO-TERMINAL DC DATA, BEGIN VSC DC LINE DATA
0 / END OF VSC DC LINE DATA, BEGIN IMPEDANCE CORRECTION DATA
0 / END OF IMPEDANCE CORRECTION DATA, BEGIN MULTI-TERMINAL DC DATA
0 / END OF MULTI-TERMINAL DC DATA, BEGIN MULTI-SECTION LINE DATA
0 / END OF MULTI-SECTION LINE DATA, BEGIN ZONE DATA
1, 'ZONE1'
0 / END OF ZONE DATA, BEGIN INTER-AREA TRANSFER DATA
0 / END OF INTER-AREA TRANSFER DATA, BEGIN OWNER DATA
1, 'OWNER1'
0 / END OF OWNER DATA, BEGIN FACTS DEVICE DATA
0 / END OF FACTS DEVICE DATA, BEGIN SWITCHED SHUNT DATA
0 / END OF SWITCHED SHUNT DATA, BEGIN GNE DATA
0 / END OF GNE DATA, BEGIN INDUCTION MACHINE DATA
0 / END OF INDUCTION MACHINE DATA, BEGIN SUBSTATION DATA
0 / END OF SUBSTATION DATA
